
#######################################################################
#
#                 Cambridge Crystallographic Data Centre
#                                CCDC 
#
#######################################################################
#
# If this CIF has been generated directly or indirectly from an entry in the 
# Cambridge Structural Database, then it will include bibliographic, chemical, 
# crystal, experimental, refinement or atomic coordinate data resulting from 
# the CCDC's data processing and validation procedures. Files generated from 
# CSD entries are Copyright 2011 Cambridge Crystallographic Data Centre. They 
# may be used in bona fide research applications only, and may not be copied or 
# further disseminated in any form, whether machine-readable or not, except for 
# the purposes of generating routine backup copies on your local computer 
# system.
# 
# Files arising from any other source may also contain material that is the 
# copyright of third parties, including the originator, and you should check 
# with the originator concerning the permitted uses of the information 
# contained in this CIF.
#
# For further information on the CCDC and the free tools enCIFer and Mercury
# for validating and visualising CIF files, please visit www.ccdc.cam.ac.uk
#
#######################################################################

data_Cu-azoPMOI
_symmetry_cell_setting           rhombohedral
_symmetry_space_group_name_H-M   'R -3'
_symmetry_Int_Tables_number      148
loop_
_symmetry_equiv_pos_site_id
_symmetry_equiv_pos_as_xyz
1 x,y,z
2 -y,x-y,z
3 -x+y,-x,z
4 -x,-y,-z
5 y,-x+y,-z
6 x-y,x,-z
7 2/3+x,1/3+y,1/3+z
8 2/3-y,1/3+x-y,1/3+z
9 2/3-x+y,1/3-x,1/3+z
10 2/3-x,1/3-y,1/3-z
11 2/3+y,1/3-x+y,1/3-z
12 2/3+x-y,1/3+x,1/3-z
13 1/3+x,2/3+y,2/3+z
14 1/3-y,2/3+x-y,2/3+z
15 1/3-x+y,2/3-x,2/3+z
16 1/3-x,2/3-y,2/3-z
17 1/3+y,2/3-x+y,2/3-z
18 1/3+x-y,2/3+x,2/3-z
_cell_length_a                   18.5000
_cell_length_b                   18.5000
_cell_length_c                   48.6000
_cell_angle_alpha                90.0000
_cell_angle_beta                 90.0000
_cell_angle_gamma                120.0000
_cell_volume                     14404.9
loop_
_atom_site_label
_atom_site_type_symbol
_atom_site_fract_x
_atom_site_fract_y
_atom_site_fract_z
N1 N 0.84659 0.70413 0.41591
N2 N 0.78423 0.69596 0.40229
Cu3 Cu 0.48071 0.51717 0.47523
N4 N 0.86026 0.74457 0.22890
O5 O 0.89939 0.52356 0.51155
O6 O 0.61880 0.51187 0.50868
O7 O 0.58638 0.54227 0.46816
C8 C 0.78626 0.73567 0.37720
C9 C 0.82849 0.66105 0.44167
O10 O 0.96297 0.55575 0.47157
C11 C 0.90993 0.55512 0.48774
C12 C 0.63852 0.54032 0.48453
C13 C 0.70967 0.72038 0.36667
C14 C 0.86076 0.79127 0.36392
C15 C 0.70676 0.76146 0.34324
H16 H 0.65204 0.67733 0.37701
C17 C 0.85789 0.83233 0.34020
H18 H 0.92039 0.80351 0.37199
H19 H 0.64704 0.74891 0.33519
H20 H 0.91609 0.87544 0.33030
C21 C 0.78029 0.81810 0.33000
O22 O 0.77323 0.85725 0.30761
C23 C 0.83362 0.89739 0.28797
C24 C 0.84729 0.83690 0.27112
H25 H 0.89228 0.94601 0.29769
C26 C 0.92066 0.86662 0.25600
C27 C 0.78415 0.75413 0.26714
C28 C 0.92592 0.82076 0.23448
H29 H 0.97187 0.92643 0.25961
C30 C 0.79351 0.70763 0.24636
H31 H 0.72647 0.72712 0.27872
C32 C 0.88438 0.64156 0.45422
C33 C 0.74967 0.63086 0.45326
C34 C 0.85883 0.58842 0.47751
H35 H 0.94551 0.66444 0.44520
C36 C 0.72388 0.57645 0.47547
H37 H 0.70663 0.64786 0.44428
C38 C 0.77898 0.55705 0.48826
H39 H 0.75812 0.51370 0.50539
H40 H 0.97955 0.84893 0.22102
H41 H 0.74361 0.64462 0.24299
H42 H 0.81142 0.92930 0.27386
N1 N 0.29587 0.14245 0.41591
N2 N 0.30404 0.08826 0.40229
Cu3 Cu 0.48283 -0.03646 0.47523
N4 N 0.25543 0.11570 0.22890
O5 O 0.47644 0.37583 0.51155
O6 O 0.48813 0.10693 0.50868
O7 O 0.45773 0.04411 0.46816
C8 C 0.26433 0.05059 0.37720
C9 C 0.33895 0.16744 0.44167
O10 O 0.44425 0.40722 0.47157
C11 C 0.44488 0.35481 0.48774
C12 C 0.45968 0.09820 0.48453
C13 C 0.27962 -0.01071 0.36667
C14 C 0.20873 0.06949 0.36392
C15 C 0.23854 -0.05470 0.34324
H16 H 0.32267 -0.02529 0.37701
C17 C 0.16767 0.02556 0.34020
H18 H 0.19649 0.11688 0.37199
H19 H 0.25109 -0.10187 0.33519
H20 H 0.12456 0.04065 0.33030
C21 C 0.18190 -0.03781 0.33000
O22 O 0.14275 -0.08402 0.30761
C23 C 0.10261 -0.06377 0.28797
C24 C 0.16310 0.01039 0.27112
H25 H 0.05399 -0.05373 0.29769
C26 C 0.13338 0.05404 0.25600
C27 C 0.24587 0.03002 0.26714
C28 C 0.17924 0.10516 0.23448
H29 H 0.07357 0.04544 0.25961
C30 C 0.29237 0.08588 0.24636
H31 H 0.27288 -0.00065 0.27872
C32 C 0.35844 0.24282 0.45422
C33 C 0.36914 0.11881 0.45326
C34 C 0.41158 0.27041 0.47751
H35 H 0.33556 0.28107 0.44520
C36 C 0.42355 0.14743 0.47547
H37 H 0.35214 0.05877 0.44428
C38 C 0.44295 0.22193 0.48826
H39 H 0.48630 0.24442 0.50539
H40 H 0.15107 0.13063 0.22102
H41 H 0.35538 0.09900 0.24299
H42 H 0.07070 -0.11787 0.27386
N1 N 0.85755 0.15341 0.41591
N2 N 0.91174 0.21577 0.40229
Cu3 Cu 1.03646 0.51929 0.47523
N4 N 0.88430 0.13974 0.22890
O5 O 0.62417 0.10061 0.51155
O6 O 0.89307 0.38120 0.50868
O7 O 0.95589 0.41362 0.46816
C8 C 0.94941 0.21374 0.37720
C9 C 0.83256 0.17151 0.44167
O10 O 0.59278 0.03703 0.47157
C11 C 0.64519 0.09007 0.48774
C12 C 0.90180 0.36148 0.48453
C13 C 1.01071 0.29033 0.36667
C14 C 0.93051 0.13924 0.36392
C15 C 1.05470 0.29324 0.34324
H16 H 1.02529 0.34796 0.37701
C17 C 0.97444 0.14211 0.34020
H18 H 0.88312 0.07961 0.37199
H19 H 1.10187 0.35296 0.33519
H20 H 0.95935 0.08391 0.33030
C21 C 1.03781 0.21971 0.33000
O22 O 1.08402 0.22677 0.30761
C23 C 1.06377 0.16638 0.28797
C24 C 0.98961 0.15271 0.27112
H25 H 1.05373 0.10772 0.29769
C26 C 0.94596 0.07934 0.25600
C27 C 0.96998 0.21585 0.26714
C28 C 0.89484 0.07408 0.23448
H29 H 0.95456 0.02813 0.25961
C30 C 0.91412 0.20649 0.24636
H31 H 1.00065 0.27353 0.27872
C32 C 0.75718 0.11562 0.45422
C33 C 0.88119 0.25033 0.45326
C34 C 0.72959 0.14117 0.47751
H35 H 0.71893 0.05449 0.44520
C36 C 0.85257 0.27612 0.47547
H37 H 0.94123 0.29337 0.44428
C38 C 0.77807 0.22102 0.48826
H39 H 0.75558 0.24188 0.50539
H40 H 0.86937 0.02045 0.22102
H41 H 0.90100 0.25639 0.24299
H42 H 1.11787 0.18858 0.27386
N1 N 0.15341 0.29587 0.58409
N2 N 0.21577 0.30404 0.59771
Cu3 Cu 0.51929 0.48283 0.52477
N4 N 0.13974 0.25543 0.77110
O5 O 0.10061 0.47644 0.48845
O6 O 0.38120 0.48813 0.49132
O7 O 0.41362 0.45773 0.53184
C8 C 0.21374 0.26433 0.62280
C9 C 0.17151 0.33895 0.55833
O10 O 0.03703 0.44425 0.52843
C11 C 0.09007 0.44488 0.51226
C12 C 0.36148 0.45968 0.51547
C13 C 0.29033 0.27962 0.63333
C14 C 0.13924 0.20873 0.63608
C15 C 0.29324 0.23854 0.65676
H16 H 0.34796 0.32267 0.62299
C17 C 0.14211 0.16767 0.65980
H18 H 0.07961 0.19649 0.62801
H19 H 0.35296 0.25109 0.66481
H20 H 0.08391 0.12456 0.66970
C21 C 0.21971 0.18190 0.67000
O22 O 0.22677 0.14275 0.69239
C23 C 0.16638 0.10261 0.71203
C24 C 0.15271 0.16310 0.72888
H25 H 0.10772 0.05399 0.70231
C26 C 0.07934 0.13338 0.74400
C27 C 0.21585 0.24587 0.73286
C28 C 0.07408 0.17924 0.76552
H29 H 0.02813 0.07357 0.74039
C30 C 0.20649 0.29237 0.75364
H31 H 0.27353 0.27288 0.72128
C32 C 0.11562 0.35844 0.54578
C33 C 0.25033 0.36914 0.54674
C34 C 0.14117 0.41158 0.52249
H35 H 0.05449 0.33556 0.55480
C36 C 0.27612 0.42355 0.52453
H37 H 0.29337 0.35214 0.55572
C38 C 0.22102 0.44295 0.51174
H39 H 0.24188 0.48630 0.49461
H40 H 0.02045 0.15107 0.77898
H41 H 0.25639 0.35538 0.75701
H42 H 0.18858 0.07070 0.72614
N1 N 0.70413 0.85755 0.58409
N2 N 0.69596 0.91174 0.59771
Cu3 Cu 0.51717 1.03646 0.52477
N4 N 0.74457 0.88430 0.77110
O5 O 0.52356 0.62417 0.48845
O6 O 0.51187 0.89307 0.49132
O7 O 0.54227 0.95589 0.53184
C8 C 0.73567 0.94941 0.62280
C9 C 0.66105 0.83256 0.55833
O10 O 0.55575 0.59278 0.52843
C11 C 0.55512 0.64519 0.51226
C12 C 0.54032 0.90180 0.51547
C13 C 0.72038 1.01071 0.63333
C14 C 0.79127 0.93051 0.63608
C15 C 0.76146 1.05470 0.65676
H16 H 0.67733 1.02529 0.62299
C17 C 0.83233 0.97444 0.65980
H18 H 0.80351 0.88312 0.62801
H19 H 0.74891 1.10187 0.66481
H20 H 0.87544 0.95935 0.66970
C21 C 0.81810 1.03781 0.67000
O22 O 0.85725 1.08402 0.69239
C23 C 0.89739 1.06377 0.71203
C24 C 0.83690 0.98961 0.72888
H25 H 0.94601 1.05373 0.70231
C26 C 0.86662 0.94596 0.74400
C27 C 0.75413 0.96998 0.73286
C28 C 0.82076 0.89484 0.76552
H29 H 0.92643 0.95456 0.74039
C30 C 0.70763 0.91412 0.75364
H31 H 0.72712 1.00065 0.72128
C32 C 0.64156 0.75718 0.54578
C33 C 0.63086 0.88119 0.54674
C34 C 0.58842 0.72959 0.52249
H35 H 0.66444 0.71893 0.55480
C36 C 0.57645 0.85257 0.52453
H37 H 0.64786 0.94123 0.55572
C38 C 0.55705 0.77807 0.51174
H39 H 0.51370 0.75558 0.49461
H40 H 0.84893 0.86937 0.77898
H41 H 0.64462 0.90100 0.75701
H42 H 0.92930 1.11787 0.72614
N1 N 0.14245 0.84659 0.58409
N2 N 0.08826 0.78423 0.59771
Cu3 Cu -0.03646 0.48071 0.52477
N4 N 0.11570 0.86026 0.77110
O5 O 0.37583 0.89939 0.48845
O6 O 0.10693 0.61880 0.49132
O7 O 0.04411 0.58638 0.53184
C8 C 0.05059 0.78626 0.62280
C9 C 0.16744 0.82849 0.55833
O10 O 0.40722 0.96297 0.52843
C11 C 0.35481 0.90993 0.51226
C12 C 0.09820 0.63852 0.51547
C13 C -0.01071 0.70967 0.63333
C14 C 0.06949 0.86076 0.63608
C15 C -0.05470 0.70676 0.65676
H16 H -0.02529 0.65204 0.62299
C17 C 0.02556 0.85789 0.65980
H18 H 0.11688 0.92039 0.62801
H19 H -0.10187 0.64704 0.66481
H20 H 0.04065 0.91609 0.66970
C21 C -0.03781 0.78029 0.67000
O22 O -0.08402 0.77323 0.69239
C23 C -0.06377 0.83362 0.71203
C24 C 0.01039 0.84729 0.72888
H25 H -0.05373 0.89228 0.70231
C26 C 0.05404 0.92066 0.74400
C27 C 0.03002 0.78415 0.73286
C28 C 0.10516 0.92592 0.76552
H29 H 0.04544 0.97187 0.74039
C30 C 0.08588 0.79351 0.75364
H31 H -0.00065 0.72647 0.72128
C32 C 0.24282 0.88438 0.54578
C33 C 0.11881 0.74967 0.54674
C34 C 0.27041 0.85883 0.52249
H35 H 0.28107 0.94551 0.55480
C36 C 0.14743 0.72388 0.52453
H37 H 0.05877 0.70663 0.55572
C38 C 0.22193 0.77898 0.51174
H39 H 0.24442 0.75812 0.49461
H40 H 0.13063 0.97955 0.77898
H41 H 0.09900 0.74361 0.75701
H42 H -0.11787 0.81142 0.72614
Cu3 Cu 0.48283 0.96354 0.47523
Cu3 Cu 0.03646 0.51929 0.47523
Cu3 Cu 0.51717 0.03646 0.52477
Cu3 Cu 0.96354 0.48071 0.52477
Cu3 Cu 0.14738 0.85050 0.80856
Cu3 Cu 0.14950 0.29687 0.80856
Cu3 Cu 0.70313 0.85262 0.80856
Cu3 Cu 0.85262 0.14950 0.19144
Cu3 Cu 0.85050 0.70313 0.19144
Cu3 Cu 0.29687 0.14738 0.19144
N4 N 0.52693 1.07790 0.56223
N4 N -0.07790 0.44903 0.56223
N4 N 0.55097 0.47307 0.56223
N4 N 0.47307 -0.07790 0.43777
N4 N 1.07790 0.55097 0.43777
N4 N 0.44903 0.52693 0.43777
O5 O -0.10061 0.52356 0.51155
O5 O 0.62417 1.10061 0.51155
O5 O 1.10061 0.47644 0.48845
O5 O 0.37583 -0.10061 0.48845
O6 O 0.48813 1.10693 0.50868
O6 O -0.10693 0.38120 0.50868
O6 O 0.51187 -0.10693 0.49132
O6 O 1.10693 0.61880 0.49132

#END
